Version 4
SHEET 1 1612 680
WIRE -224 -64 -432 -64
WIRE 0 -64 -224 -64
WIRE 96 -64 0 -64
WIRE 256 -64 96 -64
WIRE -432 -48 -432 -64
WIRE 256 -48 256 -64
WIRE -224 -32 -224 -64
WIRE 0 -32 0 -64
WIRE 96 0 96 -64
WIRE 112 0 96 0
WIRE 416 0 400 0
WIRE 496 0 480 0
WIRE -432 48 -432 32
WIRE -224 48 -224 32
WIRE 0 48 0 32
WIRE 432 96 400 96
WIRE 432 112 432 96
WIRE 432 192 432 176
WIRE 432 192 400 192
WIRE 480 192 432 192
WIRE 704 192 560 192
WIRE 832 192 704 192
WIRE 1040 192 832 192
WIRE 1264 192 1040 192
WIRE 1472 192 1264 192
WIRE 1040 256 1040 192
WIRE 1264 256 1264 192
WIRE 1472 256 1472 192
WIRE 32 288 0 288
WIRE 112 288 96 288
WIRE 704 288 704 272
WIRE 704 288 400 288
WIRE 832 288 832 256
WIRE 832 288 704 288
WIRE 704 304 704 288
WIRE 832 304 832 288
WIRE 1040 368 1040 320
WIRE 1264 368 1264 320
WIRE 1472 368 1472 336
WIRE 16 384 0 384
WIRE 112 384 96 384
WIRE 416 384 400 384
WIRE 704 400 704 384
WIRE 768 400 704 400
WIRE 832 400 832 368
WIRE 832 400 768 400
WIRE 768 416 768 400
FLAG 0 384 0
FLAG 0 288 0
FLAG 496 0 0
FLAG 416 384 0
FLAG -432 -64 IN
FLAG -224 48 0
FLAG 0 48 0
FLAG -432 48 0
FLAG 1472 192 OUT
FLAG 1040 368 0
FLAG 1264 368 0
FLAG 1472 368 0
FLAG 768 416 0
DATAFLAG 432 96 ""
SYMBOL cap 96 272 R90
WINDOW 0 0 32 VBottom 2
WINDOW 3 32 32 VTop 2
SYMATTR InstName C1
SYMATTR Value .001µ
SYMBOL cap 416 16 R270
WINDOW 0 32 32 VTop 2
WINDOW 3 0 32 VBottom 2
SYMATTR InstName C2
SYMATTR Value 1µ
SYMBOL cap 416 112 R0
SYMATTR InstName C3
SYMATTR Value .1µ
SYMBOL cap 16 -32 M0
WINDOW 123 25 91 Left 2
SYMATTR Value2 x1
SYMATTR InstName Cinb1
SYMATTR Value 4.8002µ
SYMATTR SpiceLine Rser=1m Lser=0.99n
SYMBOL cap -208 -32 M0
WINDOW 123 25 91 Left 2
SYMATTR Value2 x2
SYMATTR InstName Cinc1
SYMATTR Value 0.925714µ
SYMATTR SpiceLine Rser=1m Lser=2.48n
SYMBOL voltage -432 -64 M0
WINDOW 123 0 0 Left 2
WINDOW 39 0 0 Left 2
SYMATTR InstName Vin1
SYMATTR Value 28V
SYMBOL ind 576 208 M270
WINDOW 0 47 54 VTop 2
WINDOW 3 5 56 VBottom 2
SYMATTR InstName Lo1
SYMATTR Value 15µ
SYMATTR SpiceLine Ipk=3 Rser=74.5m
SYMBOL cap 1280 256 M0
WINDOW 123 33 91 Left 2
SYMATTR Value2 x1
SYMATTR InstName Cob1
SYMATTR Value 220µ
SYMATTR SpiceLine Rser=13m Lser=2.8n
SYMBOL cap 1056 256 M0
WINDOW 123 36 88 Left 2
SYMATTR Value2 x2
SYMATTR InstName Coc1
SYMATTR Value 20.908608µ
SYMATTR SpiceLine Rser=1.044m Lser=1.13n
SYMBOL current 1472 256 M0
WINDOW 3 24 88 Invisible 2
WINDOW 0 -135 1 Left 2
WINDOW 123 0 0 Left 2
WINDOW 39 0 0 Left 2
SYMATTR Value PWL(0 0.2 1.8m 0.2 1.81m 0.6 2.2m 0.6 2.21m 0.2 5m 0.2)
SYMATTR InstName LoadStep1
SYMBOL res 720 288 M0
SYMATTR InstName RfbBot1
SYMATTR Value 107k
SYMBOL res 720 176 M0
SYMATTR InstName RfbTop1
SYMATTR Value 1000k
SYMBOL cap 848 192 M0
WINDOW 0 -92 9 Left 2
WINDOW 3 -117 55 Left 2
SYMATTR InstName CfbTop1
SYMATTR Value 22p
SYMBOL cap 848 304 M0
WINDOW 0 -88 6 Left 2
WINDOW 3 -110 55 Left 2
SYMATTR InstName CfbBot1
SYMATTR Value 4.7p
SYMBOL res 0 400 R270
WINDOW 0 32 56 VTop 2
WINDOW 3 0 56 VBottom 2
SYMATTR InstName Rfreq_1
SYMATTR Value 71.5k
SYMBOL PowerProducts\\LT8608 256 192 R0
SYMATTR InstName U1
TEXT -360 -128 Left 3 ;LT8608 - 42V, 1.5A Peak Synchronous Step-Down Regulator with 2.5uA Quiescent Current
TEXT -184 480 Left 2 !.tran 3m startup
TEXT -184 512 Left 2 ;If simulation model is not found, please "Sync release".
